data_image0
_chemical_formula_structural       Al4H12C16O20
_chemical_formula_sum              "Al4 H12 C16 O20"
_cell_length_a       6.689507
_cell_length_b       11.094217000000002
_cell_length_c       13.167643
_cell_angle_alpha    89.999851
_cell_angle_beta     90.000346
_cell_angle_gamma    101.398926

_space_group_name_H-M_alt    "P 1"
_space_group_IT_number       1

loop_
  _space_group_symop_operation_xyz
  'x, y, z'

loop_
  _atom_site_type_symbol
  _atom_site_label
  _atom_site_symmetry_multiplicity
  _atom_site_fract_x
  _atom_site_fract_y
  _atom_site_fract_z
  _atom_site_occupancy
  Al  Al1       1.0  0.500005  1e-05  0.4999950000000001  1.0000
  Al  Al2       1.0  0.9999940000000002  0.4999890000000001  4.000000000000001e-06  1.0000
  Al  Al3       1.0  1.6000000000000003e-05  6.000000000000003e-06  0.4999950000000001  1.0000
  Al  Al4       1.0  0.499989  0.49999  0.9999980000000003  1.0000
  H   H1        1.0  0.51652  0.7465180000000001  0.759238  1.0000
  H   H2        1.0  0.983496  0.7534750000000001  0.259243  1.0000
  H   H3        1.0  0.483493  0.253484  0.24076  1.0000
  H   H4        1.0  0.01650800000000001  0.24653700000000003  0.740753  1.0000
  H   H5        1.0  0.98225  0.761388  0.746321  1.0000
  H   H6        1.0  0.517779  0.738615  0.246323  1.0000
  H   H7        1.0  0.017761  0.238615  0.253684  1.0000
  H   H8        1.0  0.48224  0.26138  0.753681  1.0000
  H   H9        1.0  0.19846900000000003  0.8403840000000001  0.480772  1.0000
  H   H10       1.0  0.30153499999999994  0.659618  0.9807660000000001  1.0000
  H   H11       1.0  0.80152  0.15961  0.519239  1.0000
  H   H12       1.0  0.698486  0.3403900000000001  0.019230000000000004  1.0000
  C   C1        1.0  0.7003039999999999  0.8566220000000001  0.640779  1.0000
  C   C2        1.0  0.799698  0.643366  0.140784  1.0000
  C   C3        1.0  0.29968999999999996  0.143367  0.35922700000000013  1.0000
  C   C4        1.0  0.200314  0.356639  0.859221  1.0000
  C   C5        1.0  0.6717739999999999  0.773838  0.7304470000000001  1.0000
  C   C6        1.0  0.828195  0.726147  0.230442  1.0000
  C   C7        1.0  0.328215  0.226154  0.26956100000000005  1.0000
  C   C8        1.0  0.171764  0.273842  0.7695480000000003  1.0000
  C   C9        1.0  0.82681  0.7335930000000002  0.7748290000000001  1.0000
  C   C10       1.0  0.673155  0.766417  0.27482  1.0000
  C   C11       1.0  0.173186  0.266416  0.225178  1.0000
  C   C12       1.0  0.326799  0.233582  0.7251660000000002  1.0000
  C   C13       1.0  0.795595  0.6489470000000002  0.863167  1.0000
  C   C14       1.0  0.70439  0.8510480000000001  0.3631770000000001  1.0000
  C   C15       1.0  0.204406  0.351044  0.136819  1.0000
  C   C16       1.0  0.295602  0.148952  0.636827  1.0000
  O   O1        1.0  0.8775559999999999  0.8836270000000002  0.601654  1.0000
  O   O2        1.0  0.622464  0.6163840000000002  0.10165100000000003  1.0000
  O   O3        1.0  0.12244999999999999  0.11637100000000002  0.398352  1.0000
  O   O4        1.0  0.377566  0.383623  0.8983510000000003  1.0000
  O   O5        1.0  0.54064  0.892348  0.610095  1.0000
  O   O6        1.0  0.9593460000000003  0.6076370000000001  0.110095  1.0000
  O   O7        1.0  0.459359  0.107649  0.38991100000000006  1.0000
  O   O8        1.0  0.04065099999999999  0.392367  0.889903  1.0000
  O   O9        1.0  0.9558279999999999  0.620633  0.9011400000000004  1.0000
  O   O10       1.0  0.54415  0.879381  0.401132  1.0000
  O   O11       1.0  0.04417299999999999  0.379385  0.09885900000000002  1.0000
  O   O12       1.0  0.4558209999999999  0.12061300000000001  0.598871  1.0000
  O   O13       1.0  0.6138239999999999  0.610976  0.8943710000000004  1.0000
  O   O14       1.0  0.8861819999999999  0.889029  0.39436600000000005  1.0000
  O   O15       1.0  0.386182  0.38903100000000007  0.105633  1.0000
  O   O16       1.0  0.113821  0.11096600000000001  0.6056310000000001  1.0000
  O   O17       1.0  0.225978  0.926104  0.500537  1.0000
  O   O18       1.0  0.274022  0.573898  0.000535  1.0000
  O   O19       1.0  0.7739779999999999  0.073895  0.499463  1.0000
  O   O20       1.0  0.726021  0.4261070000000001  0.9994610000000003  1.0000
