data_image0
_chemical_formula_structural       Al4H12C16O21H2
_chemical_formula_sum              "Al4 H14 C16 O21"
_cell_length_a       6.69
_cell_length_b       11.094
_cell_length_c       13.168
_cell_angle_alpha    90.0
_cell_angle_beta     90.0
_cell_angle_gamma    101.4

_space_group_name_H-M_alt    "P 1"
_space_group_IT_number       1

loop_
  _space_group_symop_operation_xyz
  'x, y, z'

loop_
  _atom_site_type_symbol
  _atom_site_label
  _atom_site_symmetry_multiplicity
  _atom_site_fract_x
  _atom_site_fract_y
  _atom_site_fract_z
  _atom_site_occupancy
  Al  Al1       1.0  0.5014707397406453  0.0022068704931488665  0.4980255164034022  1.0000
  Al  Al2       1.0  0.9947780773338009  0.4984768726400003  0.0018985419198055895  1.0000
  Al  Al3       1.0  0.0051123520731497065  9.195293721453611e-05  0.49772174969623334  1.0000
  Al  Al4       1.0  0.49496258297756807  0.5004078843215055  0.0012910085054678008  1.0000
  H   H1        1.0  0.5076752196284748  0.7279914039274824  0.7425577156743621  1.0000
  H   H2        1.0  0.9886859942364179  0.7708414726694561  0.24293742405832322  1.0000
  H   H3        1.0  0.4878107288930846  0.27291631765274316  0.2528857837181045  1.0000
  H   H4        1.0  0.0061621291514745305  0.22629617848497335  0.7570625759416768  1.0000
  H   H5        1.0  0.9715421607265772  0.7431636385678809  0.737773390036452  1.0000
  H   H6        1.0  0.5249974475362997  0.7553014262801997  0.23876063183475094  1.0000
  H   H7        1.0  0.02375561540374535  0.2544337772726214  0.26366950182260024  1.0000
  H   H8        1.0  0.4710660464868278  0.24919245985139285  0.7594167679222358  1.0000
  H   H9        1.0  0.20219679814729072  0.8375993050872094  0.492178007290401  1.0000
  H   H10       1.0  0.2901533756846976  0.6480843014880505  0.9550425273390037  1.0000
  H   H11       1.0  0.8045019407915548  0.15282578165055902  0.5372873633049818  1.0000
  H   H12       1.0  0.692032385204351  0.3428005499357906  0.9807108140947752  1.0000
  C   C1        1.0  0.6937153143352391  0.8409096108269327  0.628721142162819  1.0000
  C   C2        1.0  0.7998009507422945  0.6560842070257151  0.13054374240583233  1.0000
  C   C3        1.0  0.3076869832995552  0.1588946755067184  0.36884872417982995  1.0000
  C   C4        1.0  0.19115955278807042  0.34059367944264174  0.8711269744835967  1.0000
  C   C5        1.0  0.6634720505096756  0.755025567468556  0.7160540704738761  1.0000
  C   C6        1.0  0.8324985679957294  0.7430716856306663  0.217041312272175  1.0000
  C   C7        1.0  0.3337147560385161  0.24468676592788058  0.2814398541919806  1.0000
  C   C8        1.0  0.16181559444736718  0.25562916545641035  0.7829586877278252  1.0000
  C   C9        1.0  0.8151449780226983  0.7152099456546618  0.7630619684082626  1.0000
  C   C10       1.0  0.6815151895043767  0.7836229309422768  0.26389732685297695  1.0000
  C   C11       1.0  0.17860141691208295  0.2835828583696294  0.23655832320777645  1.0000
  C   C12       1.0  0.3148411469351502  0.21857213175895232  0.7346597812879708  1.0000
  C   C13       1.0  0.7830611573326641  0.6341994079686556  0.8537363304981775  1.0000
  C   C14       1.0  0.7156061553781651  0.8661966685609301  0.3532806804374241  1.0000
  C   C15       1.0  0.2074293316324739  0.36560487836499556  0.14679526123936817  1.0000
  C   C16       1.0  0.284430488954012  0.13719378232408788  0.6442132442284326  1.0000
  O   O1        1.0  0.8665630877903784  0.860679492328058  0.583535844471446  1.0000
  O   O2        1.0  0.625058035623503  0.6319005845382921  0.08892770352369381  1.0000
  O   O3        1.0  0.13365642352354357  0.13278004133779014  0.4111482381530984  1.0000
  O   O4        1.0  0.36695491697028326  0.36707612536042816  0.9113001215066829  1.0000
  O   O5        1.0  0.541701487265284  0.8874377970574879  0.6055589307411908  1.0000
  O   O6        1.0  0.9553818599356414  0.6131421853465268  0.10525516403402187  1.0000
  O   O7        1.0  0.46644560150596254  0.11926295956725333  0.394365127582017  1.0000
  O   O8        1.0  0.032907200208722474  0.3794897718843905  0.8993013365735116  1.0000
  O   O9        1.0  0.9447087252960683  0.6129582794720977  0.895048602673147  1.0000
  O   O10       1.0  0.5552749613276886  0.8878056088063461  0.3951245443499393  1.0000
  O   O11       1.0  0.045482810006887406  0.3868460068615534  0.10593863912515189  1.0000
  O   O12       1.0  0.44605769509461946  0.11953881837889695  0.6005467800729041  1.0000
  O   O13       1.0  0.600773926621096  0.5947515979036195  0.8832017010935602  1.0000
  O   O14       1.0  0.8981043648020801  0.9062881491864679  0.38191069258809235  1.0000
  O   O15       1.0  0.38846535705984003  0.40670784129989324  0.11687424058323208  1.0000
  O   O16       1.0  0.10210211818398475  0.09351613714718321  0.6169501822600244  1.0000
  O   O17       1.0  0.2314650040297246  0.9278051364946693  0.4945321992709599  1.0000
  O   O18       1.0  0.2674132873934517  0.5732346105954181  0.9942284325637911  1.0000
  O   O19       1.0  0.7768759519656764  0.07310258508555621  0.5053918590522479  1.0000
  O   O20       1.0  0.7211930601504436  0.4262938169265894  0.005164034021871203  1.0000
  O   O21       1.0  0.0670688020573706  0.6798080648270655  0.5109356014580803  1.0000
  H   H13       1.0  0.9655887277257784  0.7190719690176725  0.5434386391251519  1.0000
  H   H14       1.0  0.004769520817270632  0.6470728191786906  0.44813183475091134  1.0000
