data_image0
_chemical_formula_structural       Al4H12C16O20
_chemical_formula_sum              "Al4 H12 C16 O20"
_cell_length_a       6.69
_cell_length_b       11.094
_cell_length_c       13.168
_cell_angle_alpha    90.0
_cell_angle_beta     90.0
_cell_angle_gamma    101.4

_space_group_name_H-M_alt    "P 1"
_space_group_IT_number       1

loop_
  _space_group_symop_operation_xyz
  'x, y, z'

loop_
  _atom_site_type_symbol
  _atom_site_label
  _atom_site_symmetry_multiplicity
  _atom_site_fract_x
  _atom_site_fract_y
  _atom_site_fract_z
  _atom_site_occupancy
  Al  Al1       1.0  0.5021602887623152  0.0029424939908651556  0.4980255164034022  1.0000
  Al  Al2       1.0  0.9943296468405274  0.4984768726400003  0.001822600243013366  1.0000
  Al  Al3       1.0  0.004663921579876163  9.195293721453611e-05  0.4974939246658567  1.0000
  Al  Al4       1.0  0.49484569046083954  0.5014193666308654  0.0011391251518833537  1.0000
  H   H1        1.0  0.5092062390012192  0.7303821802950604  0.7437727825030378  1.0000
  H   H2        1.0  0.9875142081579549  0.7686346021763073  0.24415249088699878  1.0000
  H   H3        1.0  0.4875081084834323  0.27153702359452514  0.25212636695018226  1.0000
  H   H4        1.0  0.006283910664829379  0.22712375491990422  0.7567588092345079  1.0000
  H   H5        1.0  0.9724993013452232  0.7433475444423099  0.737393681652491  1.0000
  H   H6        1.0  0.5241584216835385  0.7545658027824833  0.23891251518833537  1.0000
  H   H7        1.0  0.024298132092637398  0.2560889301424831  0.26404921020656136  1.0000
  H   H8        1.0  0.470733286261126  0.24772121285596027  0.7598724179829891  1.0000
  H   H9        1.0  0.2031274656973572  0.839070552082642  0.49157047387606323  1.0000
  H   H10       1.0  0.2889864786028611  0.6477164897391923  0.9522326852976915  1.0000
  H   H11       1.0  0.8057014221877538  0.15420507570877706  0.5369076549210208  1.0000
  H   H12       1.0  0.6908980724368773  0.34344422049629236  0.9768377885783719  1.0000
  C   C1        1.0  0.6944663652381646  0.8422889048851507  0.6290249088699879  1.0000
  C   C2        1.0  0.7994091331336503  0.6548888188419263  0.13099939246658568  1.0000
  C   C3        1.0  0.30741572495510916  0.1580670990717876  0.36839307411907657  1.0000
  C   C4        1.0  0.19128133430142527  0.3414212558775726  0.8708232077764279  1.0000
  C   C5        1.0  0.6646727541550312  0.7568646262128467  0.7166616038882139  1.0000
  C   C6        1.0  0.8315968180125559  0.7412326268863756  0.21787667071688946  1.0000
  C   C7        1.0  0.3335037773261692  0.24404309536737884  0.280908262454435  1.0000
  C   C8        1.0  0.16190601389551584  0.255905024268054  0.7828827460510328  1.0000
  C   C9        1.0  0.8162239001546993  0.7162214279640218  0.763213851761847  1.0000
  C   C10       1.0  0.6804651849392686  0.7822436368840586  0.26442891859052253  1.0000
  C   C11       1.0  0.17923190855081042  0.28459434067898925  0.23663426488456868  1.0000
  C   C12       1.0  0.3145397487746546  0.21765260238680698  0.735039489671932  1.0000
  C   C13       1.0  0.7833324156771102  0.6350269844035863  0.8537363304981775  1.0000
  C   C14       1.0  0.7151251405705288  0.8651851862515705  0.35366038882138523  1.0000
  C   C15       1.0  0.20782237149027472  0.36726003123485723  0.14702308626974483  1.0000
  C   C16       1.0  0.28412786854435984  0.13581448826586984  0.6445929526123937  1.0000
  O   O1        1.0  0.8668343461348241  0.8615070687629888  0.5836117861482382  1.0000
  O   O2        1.0  0.6249073365432553  0.6314408198522194  0.08907958687727827  1.0000
  O   O3        1.0  0.13353464201018872  0.13195246490285933  0.41084447144592956  1.0000
  O   O4        1.0  0.36704778091674517  0.3682715135442171  0.9111482381530984  1.0000
  O   O5        1.0  0.5426622946314001  0.889000996990135  0.6057108140947752  1.0000
  O   O6        1.0  0.9546006692166661  0.6116709383510942  0.10548298906439856  1.0000
  O   O7        1.0  0.4661442033454669  0.11834343019510797  0.3939854191980559  1.0000
  O   O8        1.0  0.03311940117022604  0.38059320713096506  0.8988456865127583  1.0000
  O   O9        1.0  0.944077011408184  0.6114870324766651  0.8945929526123937  1.0000
  O   O10       1.0  0.5557270585684319  0.8891849028645642  0.39482077764277035  1.0000
  O   O11       1.0  0.04581557023258915  0.38831725385698596  0.10616646415552855  1.0000
  O   O12       1.0  0.44569601730202474  0.1184353831323225  0.600850546780073  1.0000
  O   O13       1.0  0.6007812601160356  0.5975101860200558  0.8835054678007291  1.0000
  O   O14       1.0  0.8980066118589917  0.9032537022583882  0.38274605103280684  1.0000
  O   O15       1.0  0.38853174793772205  0.4091905706046857  0.117178007290401  1.0000
  O   O16       1.0  0.10191761254021757  0.09158512546567797  0.6173298906439855  1.0000
  O   O17       1.0  0.23209671791760875  0.9292763834901019  0.4944562575941677  1.0000
  O   O18       1.0  0.2674181763900782  0.5750736693397088  0.9940765492102066  1.0000
  O   O19       1.0  0.7773280492064198  0.07448187914377426  0.5051640340218713  1.0000
  O   O20       1.0  0.7202636148495338  0.42528233461722953  0.004860267314702309  1.0000
