data_image0
_chemical_formula_structural       Al4H12C16O20
_chemical_formula_sum              "Al4 H12 C16 O20"
_cell_length_a       6.69
_cell_length_b       11.094
_cell_length_c       13.168
_cell_angle_alpha    90.0
_cell_angle_beta     90.0
_cell_angle_gamma    101.4

_space_group_name_H-M_alt    "P 1"
_space_group_IT_number       1

loop_
  _space_group_symop_operation_xyz
  'x, y, z'

loop_
  _atom_site_type_symbol
  _atom_site_label
  _atom_site_symmetry_multiplicity
  _atom_site_fract_x
  _atom_site_fract_y
  _atom_site_fract_z
  _atom_site_occupancy
  Al  Al1       1.0  0.501021086998215  0.0017471058070761864  0.5018985419198057  1.0000
  Al  Al2       1.0  0.004447236463351207  0.5033503783123707  0.0012150668286755773  1.0000
  Al  Al3       1.0  0.0005388499414222159  0.0002758588116436083  0.5012910085054678  1.0000
  Al  Al4       1.0  0.5008536812713799  0.5010515548820073  0.0005315917375456891  1.0000
  H   H1        1.0  0.5179813980554013  0.7475773795541787  0.7581257594167682  1.0000
  H   H2        1.0  0.9843943342786798  0.7645886729388677  0.2515188335358445  1.0000
  H   H3        1.0  0.48400211182843067  0.2571923653890575  0.24460814094775216  1.0000
  H   H4        1.0  0.016340414819263172  0.24275575424637533  0.7458991494532199  1.0000
  H   H5        1.0  0.9797650250986141  0.755025567468556  0.7427095990279465  1.0000
  H   H6        1.0  0.5176315263415069  0.7396694269537285  0.24810145808019443  1.0000
  H   H7        1.0  0.020924917193400127  0.24670973054660036  0.2560753341433779  1.0000
  H   H8        1.0  0.48101379745576367  0.25765213007513016  0.7541008505467801  1.0000
  H   H9        1.0  0.20243588859023956  0.8488175634273828  0.4643833535844472  1.0000
  H   H10       1.0  0.3072605417198399  0.6619691950074454  0.9811664641555287  1.0000
  H   H11       1.0  0.801988529980741  0.15199820521562818  0.46210510328068055  1.0000
  H   H12       1.0  0.7051720957633609  0.34868553791752094  0.9695473876063184  1.0000
  C   C1        1.0  0.7021287955968264  0.8570013748394766  0.6401123936816525  1.0000
  C   C2        1.0  0.7997536994380524  0.6495555484834831  0.13730255164034022  1.0000
  C   C3        1.0  0.29895663105130194  0.14730860541768687  0.362089914945322  1.0000
  C   C4        1.0  0.20258415474343477  0.3535590435898914  0.8626974483596598  1.0000
  C   C5        1.0  0.6726378049233455  0.7729563902253908  0.7285844471445929  1.0000
  C   C6        1.0  0.8281995745430518  0.7340602977836417  0.22554678007290405  1.0000
  C   C7        1.0  0.3288646901528505  0.23080187240848563  0.2732381530984204  1.0000
  C   C8        1.0  0.17210832813357102  0.2701577295363071  0.7736178614823815  1.0000
  C   C9        1.0  0.82489886176748  0.7294626509229151  0.7719471445929528  1.0000
  C   C10       1.0  0.674306078635615  0.7707495197322416  0.2734659781287971  1.0000
  C   C11       1.0  0.1768097230244364  0.2731002235271723  0.2284325637910085  1.0000
  C   C12       1.0  0.3246768943839842  0.22988234303634028  0.7274453219927097  1.0000
  C   C13       1.0  0.7946340138699629  0.6467050074298325  0.8613304981773998  1.0000
  C   C14       1.0  0.7059764976450515  0.8536910690997533  0.36277339003645204  1.0000
  C   C15       1.0  0.20812457548706123  0.35723716107847275  0.1398086269744836  1.0000
  C   C16       1.0  0.2932740669715237  0.1463890760455415  0.6385176184690158  1.0000
  O   O1        1.0  0.8779518550967755  0.8826562443223321  0.6001670716889429  1.0000
  O   O2        1.0  0.62188235469589  0.6181076439561117  0.10054678007290402  1.0000
  O   O3        1.0  0.12118181700307108  0.1184353831323225  0.39990886998784936  1.0000
  O   O4        1.0  0.38065670020469133  0.38197250118918297  0.8999848116646417  1.0000
  O   O5        1.0  0.5448022215709188  0.8955296555323674  0.6109507897934386  1.0000
  O   O6        1.0  0.9602653159719606  0.6170961616467519  0.10548298906439856  1.0000
  O   O7        1.0  0.4582060420585984  0.11236648927616312  0.3939094775212637  1.0000
  O   O8        1.0  0.043783174229411706  0.388501159731415  0.8948207776427703  1.0000
  O   O9        1.0  0.9558474019171072  0.6195788909515444  0.8984659781287971  1.0000
  O   O10       1.0  0.5454827984356269  0.8816447620129721  0.4002885783718105  1.0000
  O   O11       1.0  0.048507375441387  0.38877701854305863  0.10525516403402187  1.0000
  O   O12       1.0  0.45349895233481563  0.11852733606953704  0.6011543134872419  1.0000
  O   O13       1.0  0.6136452397468392  0.6121307030371669  0.8939094775212638  1.0000
  O   O14       1.0  0.8876837383567384  0.8886331852412771  0.394365127582017  1.0000
  O   O15       1.0  0.3881500977457561  0.3893287361663459  0.10578675577156745  1.0000
  O   O16       1.0  0.11243110293202119  0.11043547759465787  0.6065461725394897  1.0000
  O   O17       1.0  0.22742668509194944  0.926885607122524  0.4996202916160389  1.0000
  O   O18       1.0  0.2764458436384915  0.5747978105280652  0.9996962332928312  1.0000
  O   O19       1.0  0.7754463522834901  0.075125549704276  0.4992405832320779  1.0000
  O   O20       1.0  0.7307090757014331  0.42978802854074183  0.9998481166464158  1.0000
